resultados/_temp_alt1_1p20/LineSummary.csv
line,maxCurrentA,normAmps,maxLoadingPct,meanLoadingPct,overloadHours
rbt_1607347,95.27409470835269,124.95,76.24977567695294,26.34079518945924,0
sbt_7584,95.27410457414707,163.8,58.16489900741579,20.093300491987012,0
sbt_22840,95.2741000583511,163.8,58.16489625051959,20.093300381383056,0
rbt_630758,30.832475691034414,76.65,40.22501720943824,17.811550110231305,0
rbt_637576,24.665708766964585,61.95,39.81551051971684,14.765432295935353,0
rbt_632607,48.93563015196636,124.95,39.16416978948888,18.42029838477967,0
rbt_1130761,30.42837410919175,90.3,33.69698129478599,15.85932734695512,0
rbt_606147,25.292417302979377,76.65,32.99728284798353,12.486855716838,0
rbt_605836,25.829607684175432,90.3,28.604216704513213,13.472211282018124,0
rbt_637360,17.66144112967558,61.95,28.509186650000935,13.394209770774301,0
rbt_637918,17.623845930885313,61.95,28.44850029198598,11.429909401712964,0
rbt_626476,15.259814276130667,61.95,24.632468565182673,11.590576387889394,0
rbt_1607350,21.935729146943576,90.3,24.292058855972954,8.84570039567984,0
rbt_606126,13.522532958569142,61.95,21.828140368957452,7.848728761231896,0
rbt_3405844,18.94147092445483,90.3,20.976158277358618,7.268647740138235,0
rbt_1633671,12.992210853333718,61.95,20.972091772935784,10.406480649373647,0
rbt_1627323,15.018955791751276,76.65,19.594201946185617,9.219320693920709,0
rbt_606143,14.824938634114798,76.65,19.341081062119763,6.891652431945979,0
sbt_34378,24.656811999127147,128.1,19.248096798694103,9.445178637882988,0
sbt_34379,24.57984432255785,128.1,19.1880127420436,9.3095840253239,0
rbt_637397,11.715025166051804,61.95,18.910452245442784,8.888114288737665,0
rbt_635862,10.774299794163625,61.95,17.391928642717712,5.99745816478016,0
rbt_3435739,13.11506753462329,76.65,17.110329464609638,8.495361722515378,0
rbt_605816,10.170443603722061,61.95,16.41718095838912,6.2886001382814465,0
smt_29422,26.129470801542993,163.8,15.952057876399872,9.773015889384347,0
smt_19119,26.12685338833451,163.8,15.950459944038162,9.773799336633372,0
smt_17184,26.125673200818504,163.8,15.949739438839133,9.773287369099016,0
sbt_24791,25.292438569839465,163.8,15.441049187936182,5.843208764032794,0
sbt_3174,25.29242970825306,163.8,15.44104377793227,5.8432103747752935,0
rbt_609688,11.164533980233742,76.65,14.565602061622624,5.384803711262673,0
rbt_1638954,8.578488651291691,61.95,13.847439307976902,6.509388091254492,0
rbt_1607265,12.050398247784777,90.3,13.344848557901193,6.280841650956114,0
rbt_606139,9.297291516999472,76.65,12.129538834963432,4.399178328954938,0
sbt_9361,25.829607766238002,216.3,11.941566234969025,5.624321190151868,0
rbt_623004,7.222532521089971,61.95,11.658648137352658,4.638433739523395,0
rbt_606121,6.961834138146862,61.95,11.237827503061922,5.2802118757982335,0
sbt_11363,18.013742795442575,163.8,10.997400974018664,4.1698814293685755,0
rbt_1605991,6.657625407270383,61.95,10.746772247409819,5.05276168104121,0
rbt_1607280,6.6049662049929125,61.95,10.661769499585008,5.010700343714023,0
sbt_34393,13.288433026746928,128.1,10.373484017757164,6.82001732030454,0
rbt_606114,9.030068113132133,90.3,10.000075429825175,4.700680283809343,0
rbt_627337,8.790021338901596,90.3,9.73424290022325,4.577729095354148,0
rbt_1621994,8.623777071426392,90.3,9.550140721402428,4.48816034061114,0
rbt_626678,8.42509852070892,90.3,9.330120177972226,4.388057956037813,0
rbt_635543,5.769885088732396,61.95,9.313777382941721,3.7848840132299277,0
rbt_606150,5.734886037990147,61.95,9.25728174009709,4.349000114859682,0
rbt_1607272,8.253820012806898,90.3,9.140442982067439,4.301161764784873,0
smt_34713,26.11258926687545,286.65,9.10957239381666,5.581510829992427,0
smt_34700,26.11243575914113,286.65,9.109518841493504,5.58147319617115,0
smt_34701,26.112072121373526,286.65,9.109391983734005,5.581384065566495,0
smt_34715,26.111761150111253,286.65,9.109283499079455,5.581307864638789,0
smt_34702,26.11145313623317,286.65,9.109176046130532,5.581232407229507,0
smt_34703,26.111031212552398,286.65,9.109028854893564,5.581129074499821,0
smt_34704,26.110523972323456,286.65,9.108851900339598,5.581004893485215,0
smt_34716,26.110206934014943,286.65,9.108741299150513,5.580927302895394,0
smt_34705,26.109888167760896,286.65,9.108630095154682,5.580849309441169,0
smt_34717,26.109508319010953,286.65,9.108497582072546,5.580756396874164,0
smt_34706,26.109123712353544,286.65,9.108363409158745,5.580662349491032,0
smt_34707,26.10867085297559,286.65,9.108205425772054,5.580551649763169,0
smt_34708,26.10824890611416,286.65,9.108058226448339,5.58044854283922,0
smt_34709,26.107704362679474,286.65,9.107868258391584,5.580315530083305,0
smt_34718,26.107401001802693,286.65,9.107762428677026,5.580241455111423,0
smt_34710,26.10710433127134,286.65,9.107658932939593,5.580169031285245,0
smt_34719,26.10679403799279,286.65,9.10755068480474,5.580093300413644,0
smt_34711,26.106484738612348,286.65,9.107442783398692,5.580017831010559,0
smt_34720,26.106132071940028,286.65,9.107319752987975,5.579931802906095,0
smt_34712,26.105806711018595,286.65,9.107206248393021,5.579852457448836,0
smt_34721,26.105573237938838,286.65,9.107124799560035,5.579795534169755,0
smt_34714,26.105563642438263,286.65,9.107121452097774,5.579793193878927,0
rbt_623007,5.64006553900385,61.95,9.104222016148265,4.277700499674297,0
sbt_22748,19.52127444224859,216.3,9.025092206310028,4.246968351127609,0
sbt_7427,19.521266291431555,216.3,9.025088438017361,4.246964447492612,0
sbt_34383,11.547877781773167,128.1,9.014736753921285,5.310895407441373,0
sbt_34392,11.54787466292447,128.1,9.014734319222848,5.652231054549021,0
sbt_34384,11.53296961046159,128.1,9.003098837206549,4.349213514377145,0
rbt_1630759,6.825104912305495,76.65,8.904246460933456,4.188712740826174,0
rbt_606122,5.512209509789238,61.95,8.897836173993927,4.182359710691915,0
rbt_1229546,8.00084615110984,90.3,8.860294740985426,4.167124738912141,0
rbt_1638606,5.458532926123506,61.95,8.81119116404117,4.143330692190086,0
rbt_605905,7.80894599293337,90.3,8.647780723071284,4.06542631849279,0
rbt_1607283,7.730402881702089,90.3,8.56080053344639,4.027558625080407,0
smt_31417,27.885598351224576,327.6,8.51208740879871,5.2392892340797,0
smt_31416,27.88555033065152,327.6,8.512072750504126,5.239278925035117,0
smt_31411,27.885532031560913,327.6,8.512067164701133,5.2392749965420355,0
smt_31412,27.885511323686615,327.6,8.512060843616181,5.239270551017336,0
smt_31413,27.88538853093484,327.6,8.51202336109122,5.239244192136228,0
smt_31414,27.885296253955342,327.6,8.51199519351506,5.239224385291062,0
smt_31415,27.885062430245704,327.6,8.511923818756319,5.239174202011821,0
smt_4387,27.88467789998585,327.6,8.511806440777121,5.239091692633356,0
smt_4863,27.884234204634254,327.6,8.511671002635609,5.238996516822416,0
smt_4693,27.883861959646946,327.6,8.511557374739604,5.238916691340235,0
smt_17964,27.883630092838676,327.6,8.511486597325604,5.2301758245060705,0
smt_4591,27.883521766873013,327.6,8.511453530791517,5.238843758186847,0
smt_6826,27.883167510684718,327.6,8.511345393981903,5.230076105266741,0
smt_4627,27.88316073386838,327.6,8.511343325356648,5.238766376931575,0
smt_4527,27.882871952005566,327.6,8.511255174604873,5.238704496112932,0
smt_7012,27.88263352136247,327.6,8.511182393578288,5.229961034418307,0
smt_23134,27.882402480294274,327.6,8.511111868221695,5.238603924507545,0
smt_22791,27.88215499726455,327.6,8.511036323951329,5.229857953926973,0
smt_18545,27.881981537936575,327.6,8.510983375438515,5.238513778234825,0
smt_7020,27.88159637211366,327.6,8.510865803453498,5.229737663966591,0
smt_10381,27.88153555206803,327.6,8.510847238116003,5.238418299049248,0
smt_18806,27.88131024464626,327.6,8.510778462956733,5.238370075785781,0
smt_24122,27.88123691835642,327.6,8.510756080084377,5.23835438334094,0
smt_6842,27.881166516990152,327.6,8.510734590045834,5.22964513564483,0
smt_6830,27.88051438486247,327.6,8.510535526514794,5.229504816406967,0
smt_31407,27.879730005211947,327.6,8.51029609438704,5.229336129715892,0
smt_29390,27.87934999256697,327.6,8.510180095411162,5.229342565482189,0
smt_31408,27.87924961748612,327.6,8.510149455887094,5.237742736907837,0
smt_17776,27.878719588227273,327.6,8.509987664294039,5.229205873065691,0
smt_10747,27.878078059555282,327.6,8.509791837471086,5.229066832551815,0
smt_18202,27.87752093094329,327.6,8.509621773792214,5.2289461367367585,0
smt_17794,27.87700392097672,327.6,8.509463956342099,5.228834175748982,0
smt_29420,27.876684456688015,327.6,8.509366439770455,5.2287650151777365,0
smt_22739,27.87649775789219,327.6,8.50930944990604,5.228724604307837,0
smt_17795,27.87588214743476,327.6,8.509121534625994,5.228591394456676,0
smt_29389,27.875195331198938,327.6,8.508911883760359,5.228442846761123,0
smt_19163,27.874603490371452,327.6,8.50873122416711,5.228314900099506,0
smt_17961,27.874226271092198,327.6,8.508616077866971,5.228233379860046,0
smt_29388,27.873791203367514,327.6,8.508483273311205,5.228139385789117,0
smt_17962,27.873256465637013,327.6,8.508320044455742,5.228023899158242,0
rbt_1107340,7.401312531107305,90.3,8.196359392145409,3.8573358779263383,0
rbt_1626486,7.400757856342863,90.3,8.195745134377479,3.8514809532651433,0
rbt_605822,7.400584442315862,90.3,8.195553092265628,3.857123362784204,0
rbt_1607287,7.393995485757641,90.3,8.188256351891075,3.851779546994734,0
smt_6447,26.191356230678206,327.6,7.994919484334007,4.900445427196227,0
smt_6627,26.19096361741822,327.6,7.99479963901655,4.900362554943534,0
smt_24630,26.19033766724235,327.6,7.994608567534295,4.900230484716018,0
smt_24629,26.189951420890914,327.6,7.994490665717617,4.900149023376226,0
smt_24628,26.189436444323814,327.6,7.994333468963312,4.900040451812301,0
smt_24627,26.18905409486589,327.6,7.99421675667457,4.8999598710361,0
smt_6957,26.18869640784315,327.6,7.994107572601694,4.899884510526059,0
smt_6431,26.188251246927027,327.6,7.9939716870961615,4.899790750793689,0
smt_24626,26.187880772938374,327.6,7.993858599798038,4.899712747407908,0
smt_12228,26.187477954538444,327.6,7.993735639358499,4.899627960478104,0
rbt_606132,4.9456428167979505,61.95,7.983281383047538,3.750966449138417,0
smt_6510,26.136818075955293,327.6,7.978271695957048,4.888064957850488,0
smt_19223,26.136275335636782,327.6,7.978106024309152,4.887949624559263,0
smt_22843,26.135813348658612,327.6,7.977965002643043,4.887851491408853,0
smt_6737,26.135410379173873,327.6,7.97784199608482,4.887765924434063,0
smt_24665,26.134885249011386,327.6,7.977681699942425,4.88765445963118,0
smt_24635,26.13434271790626,327.6,7.977516092156978,4.887539351039119,0
smt_24637,26.13378131797567,327.6,7.977344724656797,4.887420292313218,0
smt_24636,26.133232293415684,327.6,7.977177134742272,4.887303910482722,0
smt_19174,26.132732400897282,327.6,7.977024542398438,4.8871979886651,0
smt_6686,26.132142653354098,327.6,7.97684452178086,4.887073082749954,0
smt_19173,26.131150865655666,327.6,7.97654177828317,4.88686316120855,0
smt_19172,26.13081571197837,327.6,7.9764394725208705,4.8867922608292735,0
smt_6544,26.130449989457066,327.6,7.976327835609605,4.886714915791917,0
smt_6535,26.12990940191139,327.6,7.976162821096272,4.8866006313566475,0
smt_24634,26.12872756953851,327.6,7.975802066403695,4.886350957144079,0
smt_24633,26.128305802915367,327.6,7.975673322013237,4.886261912390041,0
smt_24632,26.12785208234133,327.6,7.975534823669514,4.886166155495718,0
smt_1873,26.127405508131204,327.6,7.975398506755556,4.886071941339809,0
smt_24631,26.12700534141588,327.6,7.975276355743553,4.885987546929434,0
smt_6527,26.126589589376447,327.6,7.975149447306608,4.885899894680445,0
smt_24511,26.126324470763805,327.6,7.975068519769171,4.886784915597619,0
smt_29446,26.125658974512714,327.6,7.974865376835383,4.886640600067971,0
smt_32671,26.12522005059735,327.6,7.974731395176235,4.886545459999982,0
smt_6389,26.12473552920526,327.6,7.9745834948734,4.886440475230768,0
smt_24510,26.12472064864596,327.6,7.974578952578132,4.88643725143989,0
smt_24509,26.12420548866523,327.6,7.9744216998367605,4.886325674166621,0
smt_24508,26.123753901112547,327.6,7.974283852598457,4.8862279037936345,0
smt_6426,26.123346788936246,327.6,7.974159581482369,4.886139792883092,0
smt_6420,26.122931707535166,327.6,7.9740328777579865,4.8860499868518295,0
smt_6140,26.122483156880076,327.6,7.9738959575336,4.885952973151755,0
smt_6653,26.122055300084693,327.6,7.973765354116207,4.885860467709667,0
smt_6650,26.121633704782113,327.6,7.973636662021401,4.885769347156505,0
smt_29445,26.12122013283096,327.6,7.973510419057068,4.885679990701383,0
smt_24507,26.120794664847207,327.6,7.973380544825154,4.885588094963585,0
smt_24506,26.120370630284686,327.6,7.973251108145509,4.885496540146685,0
smt_24505,26.119933036899525,327.6,7.973117532631112,4.885402090484552,0
smt_24459,26.119557554596682,327.6,7.973002916543553,4.885321073304312,0
smt_24458,26.119105269059602,327.6,7.9728648562453,4.885223516926788,0
smt_24457,26.118650136874844,327.6,7.972725927006972,4.885125382386652,0
smt_24456,26.118231611181272,327.6,7.972598171911255,4.885035172563407,0
smt_24455,26.117801938933045,327.6,7.972467014326326,4.884942591836356,0
smt_24454,26.117389705042527,327.6,7.972341179805411,4.884853798613697,0
smt_19165,26.116934514103463,327.6,7.972202232632314,4.884755786900286,0
smt_17113,26.116458555939683,327.6,7.972056946257535,4.884653342027854,0
smt_6993,26.115414266786836,327.6,7.971738176674857,4.88442870772048,0
smt_24453,26.11478057158465,327.6,7.971544741020955,4.88429248735427,0
smt_24452,26.114290069962834,327.6,7.97139501525117,4.884187095940988,0
smt_24451,26.11386016122257,327.6,7.971263785476975,4.884094758015339,0
smt_24450,26.113454045328943,327.6,7.971139818476478,4.8840075598536785,0
smt_6394,26.113009733905894,327.6,7.971004192278966,4.883912193341103,0
smt_24668,26.10555255155257,327.6,7.968727885089306,4.882316678899327,0
smt_29393,26.10537846442799,327.6,7.968674744941389,4.8822795463413575,0
smt_19218,26.103915220611704,327.6,7.968228089319811,4.881967645162402,0
smt_6502,26.103405991548442,327.6,7.968072646992809,4.881859185834981,0
smt_24667,26.10313986525374,327.6,7.967991411860116,4.881802522084982,0
smt_6683,26.102424297135045,327.6,7.967772984473457,4.88165022349493,0
smt_19220,26.101843641061954,327.6,7.967595739029901,4.881526703883314,0
smt_22844,26.101439797753116,327.6,7.967472465736604,4.88144083088741,0
smt_6687,26.100996028831876,327.6,7.967337005137935,4.881346500551804,0
smt_24666,26.100663323307668,327.6,7.967235446675111,4.8812758007899415,0
rbt_623433,7.160338245644252,90.3,7.929499718321431,3.7311832725385883,0
rbt_626698,7.1128492615839445,90.3,7.876909481266827,3.702298376785724,0
rbt_1607252,5.992465558137356,76.65,7.817958979957411,3.6768238789758017,0
rbt_637356,4.684049200182706,61.95,7.561015658083464,3.5543542317864247,0
rbt_631391,6.741432689384564,90.3,7.465595447823438,5.654118886454087,0
rbt_605855,5.5582647484019025,76.65,7.251486951600655,3.411112725208286,0
rbt_1607255,6.492802112049145,90.3,7.190257045458632,3.380118239817028,0
rbt_636933,5.405174633674802,76.65,7.051760774526812,3.31829608904221,0
rbt_605910,4.246714556458594,61.95,6.855067887745914,3.2201784977097705,0
rbt_627343,6.148319864271856,90.3,6.808770613811579,3.19948139052677,0
rbt_1607304,4.131446871198448,61.95,6.669002213395396,3.131931595571384,0
rbt_1607305,5.835303280344982,90.3,6.462129878565872,3.0382468730411776,0
rbt_1607285,3.965196447950736,61.95,6.400639948265916,3.0051710977863326,0
rbt_606103,4.816529348035415,76.65,6.283795626921611,2.9539250151758982,0
rbt_3405846,4.8005828339468835,76.65,6.262991303257512,2.94526306719321,0
rbt_606109,3.8242525819651667,61.95,6.173127654503901,2.900108924141233,0
rbt_605825,5.571659390338737,90.3,6.17016543780591,2.901520654788966,0
sbt_4580,10.020902879974086,163.8,6.117767325991505,2.878838130030164,0
rbt_1631852,5.515864729944576,90.3,6.108377331057117,2.8712662304226977,0
rbt_605993,5.4839906898089374,90.3,6.073079390707572,2.854204673568379,0
rbt_621999,5.443897059794725,90.3,6.0286789145013575,2.833892783171668,0
rbt_630753,5.439898683854105,90.3,6.0242510341684445,2.8331811638963758,0
sbt_28279,12.99222302624667,216.3,6.006575601593466,2.98049685918923,0
sbt_20214,12.992215594709448,216.3,6.006572165838857,2.980497148120294,0
sbt_6049,9.829239811160322,163.8,6.000756905470282,2.824035044221604,0
smt_6110,19.413895841280194,327.6,5.92609763164841,3.3736741428899086,0
rbt_607384,3.6017669594079766,61.95,5.813990249246128,2.7317069977724415,0
rbt_1607278,4.449618981950713,76.65,5.8051128270720325,2.7278065292499547,0
rbt_1628760,5.225422000697939,90.3,5.786735327461726,2.7190406480367435,0
smt_24515,18.93367777665643,327.6,5.779510920835296,3.3469095723720668,0
smt_6552,18.933282514063603,327.6,5.779390266808181,3.3468142710007593,0
smt_6549,18.932760241273783,327.6,5.779230842879665,3.346688400970924,0
smt_23959,18.932304170348818,327.6,5.779091627090603,3.3465785367703766,0
smt_22744,18.931757017224992,327.6,5.778924608432537,3.3464467941232154,0
smt_19175,18.931301933605706,327.6,5.778785694018835,3.346337271877392,0
smt_19177,18.930783732276943,327.6,5.778627512905049,3.34621261702971,0
smt_19176,18.930239091579253,327.6,5.778461261165828,3.3460816681958434,0
smt_19164,18.930001942609934,327.6,5.778388871370553,3.3460246712641912,0
smt_32311,18.929593867071205,327.6,5.778264306187791,3.345926623563519,0
smt_39119,18.92910437670813,327.6,5.778114889105044,3.3458090651981363,0
smt_32312,18.92908139458304,327.6,5.7781078738043465,3.3458035471404344,0
smt_32310,18.92906265421385,327.6,5.778102153300932,3.3457990469234535,0
smt_32309,18.928609690272012,327.6,5.777963885919417,3.345690313649678,0
smt_32314,18.928402596494934,327.6,5.777900670480748,3.3456406162399865,0
smt_32313,18.928386868099896,327.6,5.777895869383362,3.3456368425213285,0
smt_6802,18.92820653733131,327.6,5.777840823361205,3.405559285970382,0
smt_24514,18.927640858719887,327.6,5.777668149792395,3.4054242464771467,0
smt_24513,18.927053359017204,327.6,5.777488815328816,3.4052840723186555,0
smt_19166,18.92659234089398,327.6,5.777348089405976,3.4051741291911886,0
smt_6414,18.92614230470006,327.6,5.777210715720409,3.4050668501584247,0
smt_18852,18.925686815302313,327.6,5.777071677442708,3.4049583166206037,0
smt_6403,18.925181396801552,327.6,5.776917398291072,3.4048379395250064,0
smt_1832,18.924742008666684,327.6,5.776783274928779,3.40473333482209,0
smt_1831,18.924313926253323,327.6,5.7766526026414295,3.4046314626194962,0
smt_1829,18.923473435911927,327.6,5.776396042708158,3.4044315658896434,0
smt_1828,18.922864987134282,327.6,5.776210313533053,3.404286953682643,0
rbt_3433894,5.194774450166251,90.3,5.752795625876247,2.704775837019236,0
smt_6350,18.828058117179264,327.6,5.747270487539458,3.329769664999089,0
smt_24517,18.82583577698238,327.6,5.746592117515989,3.329455884453109,0
smt_24520,18.82515462912544,327.6,5.746384196924737,3.329291544124209,0
smt_19116,18.824832984353627,327.6,5.746286014759959,3.3292139778530156,0
rbt_1607357,4.382653830687541,76.65,5.71774798524141,2.6874212511183084,0
rbt_605806,4.787490930438788,90.3,5.3017618277284475,2.491617952503256,0
rbt_622714,4.714606218073278,90.3,5.221047860546267,2.4552770274814444,0
smt_6066,8.459013944240347,163.8,5.1642331771919086,2.9989789352557086,0
smt_6062,8.45858703964429,163.8,5.16397255167539,2.9988674616791453,0
smt_6719,8.458115485816585,163.8,5.1636846677756925,2.998744814957098,0
smt_6176,8.457583678386188,163.8,5.163359999014766,2.9986057636063013,0
smt_6144,8.457086800829128,163.8,5.163056654962837,2.998476976960084,0
smt_6227,8.45655985072681,163.8,5.162734951603669,2.9983402359379756,0
smt_19063,8.456050529882827,163.8,5.162424010917476,2.9982086375791703,0
smt_6092,8.455545534578212,163.8,5.1621157109757085,2.9980777502659257,0
smt_29474,8.455107890450924,163.8,5.161848528968817,2.997966069645646,0
smt_29473,8.454617817296219,163.8,5.16154933900868,2.997840622867489,0
smt_19115,8.454127374034401,163.8,5.161249923097925,2.9977140186718514,0
smt_24512,8.453740567225175,163.8,5.161013777304746,2.997610396139431,0
rbt_1607258,3.9410782785164424,76.65,5.141654636029279,2.4181422135709956,0
smt_37840,8.349799967911402,163.8,5.097557977967888,2.970326710278774,0
smt_6474,8.34945142252633,163.8,5.097345190797515,2.970235912577064,0
smt_19061,8.349019545096413,163.8,5.097081529362889,2.9701226159927923,0
smt_29476,8.348597493552068,163.8,5.096823866637404,2.970013202389385,0
smt_6594,8.348081984081643,163.8,5.096509147790991,2.9698788775123894,0
smt_29475,8.347562023660434,163.8,5.096191711636406,2.9697430271417544,0
smt_19011,8.347113688465718,163.8,5.095918002726323,2.969627597210801,0
rbt_627328,4.601434613344104,90.3,5.095719394622485,2.3985827071756765,0
smt_19014,8.346599598484412,163.8,5.095604150478883,2.9694947833639898,0
sbt_5830,8.268490539046137,163.8,5.047918522006189,2.375365693660528,0
rbt_621168,3.8295693040583436,76.65,4.996176521928693,2.34846236841094,0
rbt_605815,4.493844422864738,90.3,4.976571896860175,2.3404303976633023,0
rbt_1107330,4.4925701046909055,90.3,4.975160691795023,2.341664413928626,0
rbt_621171,3.074812519973614,61.95,4.963377756212452,2.3318580743840998,0
rbt_3422597,4.473578124127861,90.3,4.95412859814824,2.3301122016044755,0
rbt_606127,3.052092701426226,61.95,4.926703311422479,2.3146673246412144,0
rbt_635966,3.035166079021361,61.95,4.899380272835127,2.3020725361049124,0
rbt_1124041,4.413834242623323,90.3,4.887967046094489,2.299049839529788,0
rbt_605921,3.6374058233268878,76.65,4.7454740030357305,2.2307806075379553,0
sbt_14007,7.7304025997030665,163.8,4.7194155065342285,2.2203206002571645,0
sbt_25907,10.170467972778003,216.3,4.7020194048904305,1.8011036003445746,0
sbt_21361,10.170461273634139,216.3,4.702016307736541,1.8011037002342283,0
sbt_20771,10.170455924173453,216.3,4.7020138345693265,1.8011058459967335,0
rbt_627336,4.222417236361552,90.3,4.675988080134609,2.1971580952186627,0
rbt_1627321,4.206512619772402,90.3,4.658374994210855,2.1898683546598368,0
rbt_1607355,4.188722764867265,90.3,4.638674158214026,2.1804054114628832,0
rbt_605902,2.87321752019578,61.95,4.637962098782535,2.1795132952172076,0
sbt_35173,5.835302885566913,128.1,4.555271573432407,2.1417146895353674,0
rbt_1607358,3.487726604432373,76.65,4.550197787909162,2.1390604262967723,0
sbt_21952,9.829238985924324,216.3,4.544262129414851,2.1385891670292794,0
sbt_20840,7.400584431277616,163.8,4.518061313356298,2.1263628264613916,0
sbt_6273,7.39399518319439,163.8,4.514038573378748,2.123416737004581,0
smt_6536,12.855707185424025,286.65,4.48480976292483,2.6353934282791127,0
smt_6703,12.855109102204889,286.65,4.484601117113166,2.635248166281787,0
smt_6514,12.85452251555192,286.65,4.484396481964738,2.6351058479995055,0
smt_6984,12.854432968908785,286.65,4.484365242947423,2.635084135139649,0
smt_5854,12.853521754391831,286.65,4.484047358936624,2.6348633887013184,0
smt_5855,12.852838902251108,286.65,4.483809140851599,2.6346982020640453,0
smt_5657,12.852279126405056,286.65,4.4836138588540235,2.6345629406605453,0
smt_21743,12.85168888552571,286.65,4.483407948901347,2.634420466512267,0
smt_22741,12.85108400044647,286.65,4.483196930209828,2.634274616009025,0
smt_6098,12.850603364386712,286.65,4.483029256719593,2.6341588390901474,0
smt_19120,12.8500459133147,286.65,4.482834785736857,2.634024685932481,0
smt_22740,12.84949408583129,286.65,4.4826422765851355,2.633892020738169,0
smt_22738,12.833464573265333,286.65,4.477050261037967,2.6280599533700313,0
smt_6754,12.832962417253006,286.65,4.476875080151058,2.627938097544105,0
smt_6567,12.832451878961763,286.65,4.4766969750433505,2.6278143204107987,0
smt_6746,12.831944291760529,286.65,4.476519899445501,2.6276913716675585,0
smt_6812,12.831445393093794,286.65,4.476345854908004,2.627570637236698,0
rbt_3405838,4.0171380908558305,90.3,4.448657907924508,2.0935985368108025,0
rbt_622273,2.5570903876308173,57.75,4.427862143083666,2.0844192901695733,0
rbt_1107341,2.7390727245686612,61.95,4.421424898415918,2.0801685081250296,0
rbt_638617,2.728344621763994,61.95,4.404107541184817,2.071889933255014,0
rbt_605828,3.9687000567862367,90.3,4.395016674181879,2.0685092399682894,0
rbt_1607292,3.8932779082736833,90.3,4.31149270019234,2.0273171733958266,0
rbt_1626490,3.8514710404256776,90.3,4.265194950637516,3.230569403919084,0
rbt_1635060,2.6420989651250286,61.95,4.26488937066187,2.0056732684974703,0
sbt_37156,6.9618339256412805,163.8,4.250203861807863,1.9970030783565695,0
rbt_605867,3.8293583803790154,90.3,4.240706955015521,1.9942137096698478,0
sbt_4615,6.86635737397836,163.8,4.191915368729157,1.9736497638723707,0
sbt_3373,6.866356193156338,163.8,4.191914647836592,1.9736489752781612,0
sbt_20793,6.866355107257914,163.8,4.191913984894941,1.9736482568976115,0
sbt_4010,6.866353420241586,163.8,4.191912954970443,1.973647153091214,0
sbt_28804,6.8663518846386795,163.8,4.191912017483931,1.9736461605598654,0
rbt_605812,3.739119992627311,90.3,4.140775185633789,1.9489985795806835,0
rbt_632613,3.7360346215442957,90.3,4.1373583848774045,1.946230438345995,0
rbt_622713,3.717605681888796,90.3,4.116949813830339,1.9346433152720237,0
rbt_606120,2.538588473974563,61.95,4.097802217876615,1.9247984860067,0
sbt_26269,8.790020975163781,216.3,4.0638099746480725,1.9110906138203572,0
smt_7052,6.581216164068289,163.8,4.017836486000177,2.155136438691485,0
rbt_1132019,3.619461489002984,90.3,4.008263000003305,1.8847692860249703,0
rbt_605863,3.601894592971945,90.3,3.9888090730586323,1.8761405016310755,0
rbt_634166,3.027200053022816,76.65,3.949380369240464,1.8559381720940877,0
rbt_1138614,2.4301854575417137,61.95,3.9228175262981653,1.8445917146285664,0
sbt_4118,11.164541477383178,286.65,3.8948339359438964,1.4398930434955728,0
rbt_605803,3.4982652848141425,90.3,3.874047934456415,1.8212475010003388,0
smt_37837,8.350385973127588,216.3,3.8605575465222324,2.2494906701925133,0
smt_37841,8.350021522458448,216.3,3.860389053378847,2.249416908827618,0
rbt_605834,3.4726046999186466,90.3,3.8456308969198743,1.8106200526629637,0
rbt_605904,2.3766582418443707,61.95,3.8364136268674263,1.8012917458251323,0
smt_29484,6.2816489182337945,163.8,3.834950499532231,1.899669804776828,0
smt_22951,6.281635504849027,163.8,3.8349423106526412,1.8996615397497312,0
smt_19381,6.280306497849221,163.8,3.8341309510679005,1.8988436814842256,0
smt_18804,6.279614539156073,163.8,3.833708509863292,1.8984186977801476,0
smt_19380,6.278821515255586,163.8,3.8332243682879032,1.8979323540622204,0
smt_5349,6.278186097812117,163.8,3.832836445550743,1.89754321731756,0
smt_18803,6.2775406706096675,163.8,3.8324424118496134,1.8971484536085212,0
smt_13454,6.276881589299813,163.8,3.832040042307578,1.8967458636129597,0
smt_19377,6.276098079342852,163.8,3.8315617090005194,1.8962679608039628,0
smt_29411,6.275112971177972,163.8,3.830960299864451,1.8956681649060425,0
smt_8954,6.2745076696509265,163.8,3.8305907629126534,1.895300213873704,0
smt_5584,6.2738020246361135,163.8,3.830159966200313,1.894871839588153,0
rbt_605810,2.9310364869483494,76.65,3.8239223574016297,1.7973337091687573,0
rbt_605864,3.443800090309727,90.3,3.8137321044404504,1.7938195149985272,0
rbt_609682,2.903019404198341,76.65,3.7873703903435625,1.7818975125087482,0
rbt_622703,2.3295440278322346,61.95,3.7603616268478364,2.848653498762731,0
rbt_605835,3.3937535214826835,90.3,3.758309547599871,1.7694897732263364,0
sbt_14006,6.144920281653145,163.8,3.751477583426828,1.7642906752621261,0
smt_25186,6.062840278717322,163.8,3.701367691524616,2.000737412061115,0
sbt_27416,8.00084602425965,216.3,3.6989579400183303,1.7396733741109802,0
sbt_15213,8.000845968932287,216.3,3.698957914439337,1.739673362155239,0
rbt_606128,2.820207904472576,76.65,3.6793319040738104,1.7291766496530083,0
rbt_1607257,3.2924307073786996,90.3,3.646102665978627,1.7139849471332311,0
rbt_607385,3.2856899191999114,90.3,3.638637784274542,1.711513433558528,0
rbt_3405845,3.2751286459151934,90.3,3.626942022054478,1.7073968434263767,0
rbt_633056,3.270937720613932,90.3,3.6223009087640445,1.7031868516086883,0
rbt_606141,3.2670393581285673,90.3,3.6179837853029544,1.7033402153791393,0
rbt_623015,3.2586573714781615,90.3,3.60870140805998,2.7334357301087397,0
sbt_34389,4.601433371146419,128.1,3.5920635215819035,2.7643939913119855,0
smt_37855,7.709931519673624,216.3,3.5644620987857714,1.9458916727801008,0
smt_37854,7.70955002447077,216.3,3.5642857255990616,1.945846305941864,0
smt_37853,7.709198928883998,216.3,3.564123406788718,1.945806522952387,0
smt_37852,7.708838519097622,216.3,3.5639567818296904,1.9457644453311247,0
smt_37851,7.708499024209009,216.3,3.563799826263989,1.9457266062288436,0
smt_37850,7.708145868761795,216.3,3.5636365551372147,1.9456867004990137,0
smt_37849,7.707794122851458,216.3,3.5634739356687275,1.9456478488154092,0
smt_37848,7.7074297785391055,216.3,3.563305491696304,1.9456071246641777,0
smt_37847,7.707066770219668,216.3,3.5631376653812605,1.945561472450137,0
smt_37846,7.706811609861861,216.3,3.5630196994275822,1.945537918866548,0
smt_37845,7.70646330003278,216.3,3.5628586685311046,1.945500779154381,0
smt_38000,7.706092000206385,216.3,3.562687008879512,1.9454573003940154,0
smt_38002,7.70577752141556,216.3,3.56254161877742,1.9454074061936464,0
smt_38001,7.705769367176686,216.3,3.562537848902767,1.9454068037218502,0
smt_37843,7.705756986761606,216.3,3.562532125178736,1.945422292015991,0
smt_37842,7.705414468172891,216.3,3.5623737716934305,1.9453767276551337,0
smt_37838,7.70523743922711,216.3,3.5622919275206244,1.9453631668415834,0
rbt_605982,3.192062893605049,90.3,3.5349533705482274,1.6633140615441533,0
rbt_1606000,3.1910112340670502,90.3,3.53378874204546,1.6614946223657043,0
rbt_1629639,3.1775990918351016,90.3,3.5189358713567014,1.6533491945635845,0
sbt_3952,5.743463287214175,163.8,3.506387843232097,1.650282842312986,0
sbt_4120,5.7434618876685075,163.8,3.5063869888086123,1.6502819304723744,0
sbt_20855,5.743460521199567,163.8,3.50638615457849,1.6502810478720722,0
sbt_20854,5.743459221531858,163.8,3.5063853611305604,1.650280215157653,0
rbt_635963,2.171583120521338,61.95,3.5053803398245966,1.646498027320124,0
rbt_626481,3.122958156643147,90.3,3.458425422639144,1.6256913940909026,0
rbt_1607306,2.6333498285155557,76.65,3.435550983060085,1.615483119272601,0
rbt_605901,3.092728527113543,90.3,3.424948535009461,1.609366485829505,0
rbt_605820,2.6204733111577356,76.65,3.4187518736565363,1.608093960798625,0
rbt_3405847,3.085462220122348,90.3,3.4169016834134527,1.6084291598301552,0
sbt_34000,7.347058629600334,216.3,3.396698395561874,1.596685999365963,0
rbt_1607289,2.6033759089841966,76.65,3.396446065210954,1.5961271252219937,0
smt_6512,9.665490471768841,286.65,3.3718787621729778,1.993680300206794,0
smt_6425,9.665089115977235,286.65,3.3717387461982335,1.9935928649170613,0
smt_6930,9.664474235270138,286.65,3.3715242404570516,1.9934591167733373,0
sbt_20828,5.512208253222783,163.8,3.365206503799013,1.581789109335144,0
sbt_37537,7.222563583024702,216.3,3.339141739724781,1.3284846360883502,0
sbt_37545,7.222554956721472,216.3,3.3391377516049343,1.3284852183443712,0
sbt_37546,7.222538273931524,216.3,3.339130038803293,1.3284841284239606,0
sbt_37539,7.214026771060456,216.3,3.335194993555458,1.904042477038819,0
sbt_37538,7.214021252804033,216.3,3.335192442350454,1.9040429985328904,0
smt_15243,5.457120594591865,163.8,3.3315754545737883,1.9824981386958689,0
smt_26472,5.456660115933783,163.8,3.331294332071906,1.9823903055906555,0
smt_14780,5.4561382054614445,163.8,3.330975705409917,1.982267320106927,0
smt_14754,5.455617414247502,163.8,3.3306577620558624,1.9821452395050232,0
smt_14729,5.455099221892709,163.8,3.330341405306904,1.9865465034769352,0
smt_21229,5.454573179599269,163.8,3.33002025616561,1.986425185733613,0
smt_26474,5.454077473731331,163.8,3.329717627430605,1.9863107705178518,0
smt_22453,5.453640259707117,163.8,3.329450708001903,1.986213624997209,0
smt_14544,5.453115085827553,163.8,3.3291300890278106,1.9860951074031326,0
smt_14113,5.452590571137684,163.8,3.328809872489428,1.9859787417042807,0
smt_22508,5.452015123551613,163.8,3.3284585613868205,1.9858487360570793,0
smt_14452,5.451507800689582,163.8,3.3281488404698303,1.9857341695503787,0
smt_30311,5.451082075814083,163.8,3.3278889351734326,1.9856430197195547,0
smt_26478,5.4505570643764205,163.8,3.32756841537022,1.985525411457421,0
rbt_1609690,2.993770903346251,90.3,3.3153609117898686,1.5578386602337992,0
smt_22686,9.463281083041307,286.65,3.301336502020341,2.0467509446968255,0
smt_6239,9.46280693233735,286.65,3.3011710909950636,2.0466448313173085,0
smt_23961,9.462344077502419,286.65,3.3010096206183217,2.046541381540756,0
smt_29407,9.461873205509038,286.65,3.3008453533957924,2.0464362776169716,0
smt_6278,9.46145144048821,286.65,3.300698217508533,2.046342252989204,0
smt_6630,9.46095965139203,286.65,3.3005266531979873,2.046232758960016,0
smt_19070,9.460465478964064,286.65,3.3003542574442926,2.0461228876070807,0
smt_6639,9.459971558078346,286.65,3.3001819494429956,2.04601322597721,0
smt_19117,9.459510472717898,286.65,3.3000210963606835,2.0459109936395676,0
smt_21514,9.454214299071428,286.65,3.2981734865066907,2.040115080897195,0
smt_5615,9.45373775558499,286.65,3.2980072407413195,2.040006825903625,0
smt_18742,9.45336660500062,286.65,3.297877762079407,2.0399226096670557,0
smt_6270,9.452783649087865,286.65,3.297674393541903,2.039790505229694,0
smt_5967,9.452330197229358,286.65,3.2975162034639314,2.0396878931653806,0
smt_5772,9.451795239059049,286.65,3.297329579298465,2.0395670006879736,0
smt_6158,9.451266106471328,286.65,3.2971449874311283,2.0394475993550807,0
smt_6263,9.450807817685126,286.65,3.2969851099546927,2.039344324892106,0
smt_6384,9.450239415974723,286.65,3.296786818759715,2.0392164183137744,0
smt_22684,9.449683199810153,286.65,3.296592778583692,2.0390914488859515,0
smt_22685,9.449229331154953,286.65,3.296434443103071,2.0389896178697478,0
smt_29447,9.44875344340706,286.65,3.2962684260970034,2.0388829850479757,0
smt_19065,9.448243587721016,286.65,3.296090559121234,2.0387688985026844,0
smt_24385,9.447667430248964,286.65,3.2958895622707014,2.0386401724964824,0
smt_29448,9.445509564751779,286.65,3.2951367747258957,2.0253791169726254,0
smt_6824,9.44504562982925,286.65,3.2949749275525035,2.0252714091423245,0
smt_6855,9.44454812587978,286.65,3.294801369572573,2.0251560541090607,0
smt_19062,9.4439670778581,286.65,3.2945986666171634,2.0250215198809167,0
smt_7054,9.44350518884235,286.65,3.294437533173679,2.024914723223359,0
smt_6446,9.443033221543091,286.65,3.2942728838454878,2.024805731739113,0
smt_39006,9.442549619269487,286.65,3.294104175569331,2.0246941956360316,0
smt_39008,9.44211259029302,286.65,3.293951714736794,2.0245935248558253,0
smt_39007,9.44209417081505,286.65,3.2939452889639105,2.0245892843649247,0
smt_6122,9.44167472706001,286.65,3.293798962867612,2.024492780272208,0
smt_18741,9.44114536805913,286.65,3.293614292014349,2.02437114260635,0
smt_5938,9.440654883381566,286.65,3.2934431827600092,2.0242585925757504,0
smt_5946,9.440088443310986,286.65,3.29324557589778,2.0241287990068684,0
smt_37856,7.117463837249307,216.3,3.2905519358526614,1.8294711259173733,0
sbt_34382,4.214423752786044,128.1,3.289948284766623,1.5461075387770933,0
rbt_1625170,2.969206014623345,90.3,3.2881572697932944,1.5451572612069733,0
rbt_605821,4.1984545386451755,128.1,3.2774820754451017,1.5399070875164897,0
sbt_35105,4.188722404487664,128.1,3.2698847810208154,1.5370068020902028,0
smt_856,5.320058164919978,163.8,3.2478987575824037,1.9420809844279294,0
smt_15622,5.319481262970366,163.8,3.247546558589967,1.941941652709781,0
smt_23196,5.319160612627556,163.8,3.2473508013599237,1.9418686620496661,0
smt_15581,5.318816836829691,163.8,3.247140926025452,1.941790831230752,0
smt_15568,5.318444686972876,163.8,3.2469137283106693,1.9417058436785315,0
rbt_605988,2.9300721569539845,90.3,3.2448196644008687,1.5272705256721038,0
rbt_605804,1.9869347218318043,61.95,3.2073199706728075,1.507359937484182,0
smt_23147,5.2241084707773116,163.8,3.1893214107309595,1.9110329559139272,0
smt_16038,5.223793493029502,163.8,3.1891291166236275,1.9109759196611031,0
sbt_6048,5.193022472922721,163.8,3.170343390062711,1.4920862438856048,0
rbt_605829,2.8564236270953027,90.3,3.1632598306703246,1.487172127487142,0
smt_13546,5.181171388473517,163.8,3.1631082957713783,1.892510484979039,0
smt_21225,5.180861266679661,163.8,3.1629189662268993,1.892437696885273,0
smt_13930,5.180303306266429,163.8,3.1625783310539863,1.8922986592477582,0
smt_21226,5.1797493473125344,163.8,3.1622401387744405,1.8921587874375676,0
smt_13280,5.17932550827285,163.8,3.1619813847819596,1.8920539849957212,0
smt_14437,5.178922002005513,163.8,3.161735043959409,1.891955182561446,0
smt_13955,5.178515144776118,163.8,3.1614866573724774,1.8918560874863415,0
smt_26469,5.178102943463472,163.8,3.1612350082194576,1.8917548353473375,0
smt_20808,5.17774268526918,163.8,3.1610150703719047,1.8916682038463835,0
smt_23095,5.17736543047346,163.8,3.160784756088803,1.8915728971015475,0
smt_20807,5.177175179505423,163.8,3.1606686077566684,1.8915324897353207,0
smt_13717,5.176774061167345,163.8,3.160423724766389,1.8914346617247901,0
sbt_15045,6.825102245466992,216.3,3.155387076036519,1.484348385854128,0
smt_37925,6.8062601675490475,216.3,3.146675990545098,1.7587744925791415,0
smt_37924,6.806088703694473,216.3,3.146596719229992,1.7587703733517366,0
smt_37923,6.8057217779661965,216.3,3.1464270818151627,1.7587369028172475,0
smt_37864,6.805360091552481,216.3,3.1462598666446975,1.7586930868859776,0
smt_37863,6.805188745328387,216.3,3.1461806497126146,1.7586777498485988,0
smt_37862,6.805017584623445,216.3,3.146101518549905,1.7586692007302955,0
smt_37861,6.80473487914642,216.3,3.145970817913278,1.7586477680285768,0
smt_37860,6.8043926475256455,216.3,3.145812597099235,1.7586188191779868,0
smt_37859,6.804031783328006,216.3,3.145645762056406,1.7585816860459305,0
smt_37858,6.803762918585396,216.3,3.1455214602798867,1.7585647168622787,0
smt_37831,6.80339116993368,216.3,3.14534959312699,1.7585206132893563,0
smt_14797,5.140285958419415,163.8,3.1381477157627686,1.8736902926388297,0
smt_23041,5.139878123707516,163.8,3.1378987324221708,1.8735878489575029,0
smt_14823,5.139464808197405,163.8,3.1376464030509186,1.8734845158764477,0
smt_13752,5.139045491960451,163.8,3.137390410232266,1.873371472882999,0
smt_37898,6.785362067204796,216.3,3.137014363016549,1.7515043728841366,0
smt_37897,6.784953810890959,216.3,3.1368256176102443,1.751453182627504,0
smt_37896,6.784599094267668,216.3,3.136661624719218,1.7514118077814185,0
smt_37895,6.784218621232625,216.3,3.1364857241019997,1.7513663246358633,0
smt_37894,6.783844239533572,216.3,3.1363126396364174,1.7513212248755485,0
smt_37893,6.783490147573493,216.3,3.1361489355402186,1.7512802155935543,0
smt_37892,6.783120538952697,216.3,3.135978057768237,1.7512364310704143,0
smt_37891,6.782764048442298,216.3,3.1358132447722133,1.7511959032545672,0
smt_37890,6.782384975190421,216.3,3.135637991303939,1.7511577296043956,0
smt_37889,6.781872780300889,216.3,3.135401192926902,1.7510879553304848,0
smt_37888,6.78161538947158,216.3,3.1352821957797405,1.7510580513570428,0
smt_37887,6.78136897832297,216.3,3.1351682747679006,1.7510358799707582,0
smt_37886,6.780987665522091,216.3,3.1349919859094273,1.7509921053180968,0
smt_37885,6.780620272809838,216.3,3.134822132598168,1.7509509267660368,0
smt_37884,6.78024913636224,216.3,3.1346505484800002,1.7509094606918723,0
smt_37883,6.779876763212027,216.3,3.1344783926084268,1.7508685567006372,0
smt_37882,6.7794932120779325,216.3,3.134301068921837,1.7508255797018097,0
smt_37881,6.7791223663021976,216.3,3.1341296191873314,1.7507850923634758,0
smt_37880,6.778746000325141,216.3,3.133955617348655,1.7507429388547753,0
smt_37879,6.778392193964228,216.3,3.133792045290905,1.7507062460716212,0
smt_37878,6.778002096166079,216.3,3.1336116949450203,1.7506630671584176,0
smt_37877,6.777635158006427,216.3,3.1334420517829065,1.750624381825859,0
smt_37876,6.777254772000886,216.3,3.133266191401242,1.7505839537781054,0
smt_37875,6.776872650923107,216.3,3.133089528859504,1.750543595403178,0
smt_37874,6.77648901715533,216.3,3.132912166969639,1.7505027224545033,0
smt_37873,6.776116412071287,216.3,3.132739903870221,1.7504624701542626,0
smt_37945,6.775770518387654,216.3,3.1325799900081615,1.7504215537655137,0
smt_37944,6.775523943311442,216.3,3.1324659932091734,1.7503981929722237,0
smt_37943,6.7752352366123825,216.3,3.1323325180824693,1.7503710937938646,0
smt_37942,6.774895693321657,216.3,3.1321755401394618,1.7503362376413332,0
smt_37941,6.774559015542843,216.3,3.132019886982359,1.7503018675573987,0
smt_37940,6.774225458564354,216.3,3.1318656766363167,1.7502685487791416,0
smt_37939,6.773884872642213,216.3,3.1317082166630663,1.7502347459018146,0
smt_37938,6.773537098850835,216.3,3.131547433587996,1.750200282023046,0
smt_37937,6.77318526876417,216.3,3.1313847752030375,1.7501651034517878,0
smt_37936,6.772839471737149,216.3,3.131224906027346,1.7501310757761848,0
smt_37935,6.772493513387074,216.3,3.131064962268643,1.750095446491521,0
smt_37934,6.772180579197144,216.3,3.13092028626775,1.7500666183457412,0
smt_37933,6.7718385973345825,216.3,3.130762180922137,1.7500337004950122,0
smt_37932,6.771494681538659,216.3,3.130603181478807,1.7500007164765803,0
smt_23225,5.126376754384357,163.8,3.1296561382077885,1.8666787503066804,0
smt_21220,5.125914472083636,163.8,3.129373914580974,1.8665588726069595,0
smt_14845,5.125431500655599,163.8,3.129079060229303,1.866434232814436,0
smt_26425,5.124931465431091,163.8,3.128773788419469,1.8663055543669946,0
smt_20810,5.124434566666323,163.8,3.128470431420221,1.8661770568145393,0
smt_26429,5.124016101554138,163.8,3.128214958213759,1.8660705108067557,0
rbt_1607316,2.824592937449193,90.3,3.128009897507412,2.370392191331035,0
smt_26430,5.123601048076975,163.8,3.127961567812561,1.8659653449438591,0
rbt_1107342,1.9375823059150923,61.95,3.127655053938809,1.470674972405572,0
smt_21222,5.110509182130698,163.8,3.1199689756597664,1.8602389209112982,0
smt_14301,5.110170691187396,163.8,3.119762326732232,1.860149021232673,0
smt_23277,5.1097430264989585,163.8,3.1195012371788513,1.8600341735582255,0
smt_26427,5.109340750762227,163.8,3.119255647595987,1.859927214515091,0
smt_20812,5.108916774913225,163.8,3.1189968100813337,1.859814691487972,0
smt_15154,5.108491853665325,163.8,3.118737395400076,1.8597020618624907,0
smt_14674,5.108091114271949,163.8,3.118492743755769,1.8595978342171104,0
smt_37986,6.69544185701036,216.3,3.0954423749469995,1.7721347443835176,0
smt_37987,6.695178851168066,216.3,3.0953207818622586,1.7720967921173993,0
smt_37993,6.694842829420935,216.3,3.0951654320022812,1.7720426761735835,0
smt_37920,6.69467482761706,216.3,3.0950877612654,1.7720229375566896,0
smt_37919,6.694267028023066,216.3,3.094899227010201,1.7719620241005414,0
smt_37918,6.693866707826292,216.3,3.0947141506362885,1.7719022493411287,0
smt_37917,6.693483745515491,216.3,3.0945370991749837,1.7718459657779846,0
smt_37916,6.693089156890841,216.3,3.094354672626371,1.7717878132883778,0
smt_37915,6.692699923269544,216.3,3.0941747218074633,1.771728383501688,0
smt_37914,6.692410769100881,216.3,3.0940410398062324,1.771688381699554,0
smt_37913,6.692032192904392,216.3,3.093866016137028,1.7716338583152285,0
smt_37912,6.691633800058865,216.3,3.0936818308177827,1.771575900104815,0
smt_40685,6.691247946383012,216.3,3.093503442618128,1.7715197566801084,0
smt_37911,6.690882445889639,216.3,3.093334464119112,1.7714584441513657,0
smt_37910,6.690861021833973,216.3,3.0933245593314713,1.771464993676877,0
smt_37909,6.690468752737825,216.3,3.0931432051492487,1.771408784055238,0
smt_37908,6.690084206179748,216.3,3.092965421257396,1.7713545961200812,0
smt_40683,6.6896820938914106,216.3,3.0927795163621865,1.7712969360168067,0
smt_37906,6.689308318765903,216.3,3.092606712328203,1.7712446589257596,0
smt_37905,6.688921010763672,216.3,3.09242765176314,1.7711896053977336,0
smt_37904,6.68856043513956,216.3,3.0922609501338694,1.771139291868213,0
smt_37903,6.6881987752630065,216.3,3.092093747232088,1.7710865089198673,0
sbt_22669,6.657624908516943,216.3,3.0779588111497653,1.4471499453036334,0
rbt_3405987,1.906031307946477,61.95,3.076725275135556,1.448537215274331,0
smt_37963,6.638819522196184,216.3,3.0692646889487674,1.7488164421826087,0
smt_37983,6.638320119507714,216.3,3.069033804673007,1.7487347694058137,0
smt_37984,6.637812532968635,216.3,3.068799136832471,1.7486518542171716,0
smt_37985,6.63731318013437,216.3,3.068568275605349,1.7485706669349224,0
smt_37947,6.636821949978828,216.3,3.068341169661964,1.748490527131575,0
smt_37948,6.636372603906238,216.3,3.0681334276034384,1.7484185052573278,0
rbt_1132012,2.7675352856217583,90.3,3.064823129149234,1.4404855776254524,0
rbt_1607268,2.346714019297622,76.65,3.0615968940608242,1.438825123928736,0
sbt_35588,6.604962826957592,216.3,3.053612032805174,1.4351019089869208,0
rbt_605823,2.7546497518731297,90.3,3.0505534350754484,1.4346458748979096,0
smt_29426,6.581937863225478,216.3,3.042967111985889,1.632371950096255,0
sbt_21281,4.945641434375394,163.8,3.0193171150032927,1.4186338943025885,0
rbt_605989,2.6918536763991217,90.3,2.9810118232548413,1.4011022205380401,0
rbt_1121173,2.6866512660165363,90.3,2.975250571446884,1.399560153277629,0
rbt_605807,2.6796079966950295,90.3,2.9674507161628236,1.396250244301826,0
rbt_606130,2.2576356497466437,76.65,2.945382452376573,1.3840190515931594,0
sbt_3491,4.816526121660198,163.8,2.9404921377656885,1.3822834068591456,0
rbt_637399,1.8109003719031893,61.95,2.923164442135899,1.373674671315409,0
sbt_21191,4.778058018709536,163.8,2.917007337429509,1.371585999694948,0
sbt_26310,4.714605812575436,163.8,2.8782697268470305,1.3535499021441098,0
rbt_637705,2.5840526492937217,90.3,2.8616308408568347,2.1677917159070828,0
rbt_1105833,2.5761111922130673,90.3,2.8528363147431532,1.3410778710115105,0
smt_37960,6.150264833582275,216.3,2.8433956697097895,1.6622571942785005,0
smt_37962,6.1498332862640614,216.3,2.8431961563865285,1.6621894834353528,0
rbt_1607276,2.5661902762654254,90.3,2.8418496968609364,1.3353927750464607,0
smt_37981,6.129644464384235,216.3,2.833862443081015,1.6371112001435677,0
smt_37951,6.129241230907347,216.3,2.833676019836961,1.6370445134905778,0
smt_37952,6.1288372933071615,216.3,2.8334892710620254,1.6369796977111648,0
smt_37953,6.128340035207759,216.3,2.833259378274507,1.636897863952728,0
smt_37954,6.127860989242529,216.3,2.8330379053363517,1.6387767680628178,0
smt_37955,6.127341122871767,216.3,2.8327975602735864,1.6386903898259682,0
smt_37956,6.126923112112653,216.3,2.832604305183843,1.6386243668440017,0
smt_37957,6.126428682826934,216.3,2.832375720215873,1.638544853158768,0
smt_37958,6.125937050444474,216.3,2.8321484283145972,1.6384664598169787,0
smt_37959,6.125436023329593,216.3,2.8319167930326365,1.6383866036325305,0
smt_25183,6.062210306729562,216.3,2.802686225949867,1.5148299769894715,0
smt_25117,6.061567007994945,216.3,2.8023888155316437,1.514532521948113,0
smt_25116,6.060905700303629,216.3,2.8020830791972395,1.5142270260548416,0
smt_25115,6.060388273139472,216.3,2.8018438618305463,1.51398819967954,0
smt_25114,6.059934140158484,216.3,2.801633906684459,1.513778734988475,0
smt_25113,6.059404152049877,216.3,2.801388882131242,1.5135344571544946,0
smt_25112,6.05884429647801,216.3,2.801130049227004,1.513276617581681,0
smt_25111,6.058477496679234,216.3,2.800960470032008,1.5131078034109686,0
smt_25110,6.0582125563842935,216.3,2.8008379826094743,1.5129859248898205,0
smt_25109,6.057513745221554,216.3,2.800514907638259,1.512664683184074,0
smt_25108,6.056981682728003,216.3,2.8002689240536305,1.5124203167833363,0
smt_25107,6.0562648900033595,216.3,2.799937535831419,1.5120914108285393,0
smt_25106,6.055639026888025,216.3,2.7996481862635347,1.5118045145033525,0
smt_25105,6.0549987639974665,216.3,2.799352179379319,1.511511293881085,0
smt_29427,6.054358163153392,216.3,2.799056016252146,1.511218199284228,0
smt_6407,6.053090101446157,216.3,2.798469764884955,1.5106388535886224,0
smt_22794,6.052458916016851,216.3,2.798177954700347,1.5103508943051758,0
smt_6477,6.051762289917082,216.3,2.797855889929303,1.5100334000555362,0
smt_6641,6.050857222265352,216.3,2.7974374582826407,1.509621410382328,0
smt_6157,6.050221689159686,216.3,2.7971436380766,1.5093324552450111,0
smt_6694,6.049503881545846,216.3,2.7968117806499517,1.5090064327589403,0
rbt_1607319,2.525344228163511,90.3,2.7966159780326807,1.986617232780418,0
rbt_622709,2.522435294437727,90.3,2.7933945674836402,1.313363222766981,0
rbt_1607328,2.519792800415924,90.3,2.790468217514866,1.3122099392813997,0
rbt_607366,2.5187651961395816,90.3,2.789330228283036,1.3108482050564387,0
smt_37979,6.033078991748454,216.3,2.7892182116266544,1.6267564470051123,0
smt_37980,6.032650329762174,216.3,2.7890200322525076,1.6266685202376021,0
smt_6074,7.93518850269252,286.65,2.7682499573321193,1.627959740966584,0
smt_6082,7.934701221031093,286.65,2.7680799654739556,1.6278650615001482,0
smt_6649,7.934220939577277,286.65,2.76791241569066,1.6277719216332773,0
smt_29408,7.933751302860256,286.65,2.7677485794035435,1.6276811208638622,0
smt_6422,7.93328061679482,286.65,2.7675843770433706,1.6275903262076727,0
smt_22683,7.932807460710747,286.65,2.767419312998691,1.6274992272984032,0
smt_22793,7.9123100054539695,286.65,2.7602686221712784,1.6132441455412907,0
smt_22790,7.911818581980625,286.65,2.7600971854109977,1.6131452385017617,0
smt_6370,7.911344137420214,286.65,2.759931671871695,1.6130500077746504,0
smt_29449,7.911260008555441,286.65,2.75990232288695,1.6137150368454003,0
smt_29409,7.910867174441746,286.65,2.759765279763386,1.612954543237909,0
smt_6401,7.910785889763295,286.65,2.759736922994347,1.613621646648985,0
smt_5650,7.910367422830035,286.65,2.7595909376696444,1.6128546259741758,0
smt_21348,7.9103090319015505,286.65,2.7595705675567945,1.6135303993223131,0
smt_6094,7.9098739950037595,286.65,2.7594188016758276,1.6127557631914435,0
smt_29477,7.909495065031197,286.65,2.759286609116064,1.6126806543941072,0
smt_29450,7.909031928806764,286.65,2.759125040574486,1.612588819457377,0
smt_6231,7.9085226895386835,286.65,2.758947388640741,1.6124877150547767,0
smt_6340,7.908045416272167,286.65,2.758780888286122,1.6123933580344942,0
sbt_21953,4.492570442084485,163.8,2.7427169976095755,1.2909176036510586,0
sbt_21849,4.492570369781242,163.8,2.7427169534684013,1.290917582654169,0
sbt_21968,4.492570282164794,163.8,2.742716899978507,1.2909175572586866,0
smt_6581,7.838229096715287,286.65,2.734424942164761,1.5843222575436586,0
smt_6701,7.837749165565848,286.65,2.734257514587772,1.5842297151563347,0
smt_21959,7.837222063481935,286.65,2.7340736310769005,1.5841275190093482,0
smt_19219,7.82650033830245,286.65,2.7303332769239317,1.5728796805870795,0
smt_5952,7.825994814533644,286.65,2.730156921169944,1.5727748042225578,0
smt_29478,7.825467577054972,286.65,2.7299729904255967,1.5726655815797173,0
smt_22841,7.825002974051101,286.65,2.7298109101870227,1.5725696229679522,0
smt_6660,7.824501055765075,286.65,2.7296358122327145,1.5724661075546396,0
smt_22845,7.781300278966754,286.65,2.714564897598728,1.5474724108826443,0
smt_18913,7.780715044996574,286.65,2.714360734343825,1.547350455503899,0
smt_5786,7.780147767461536,286.65,2.7141628353258453,1.5472325266359412,0
smt_29479,7.779659350964362,286.65,2.7139924475717296,1.5471312558698722,0
smt_19224,7.7791573534954646,286.65,2.713817321993883,1.5470273993266284,0
rbt_1633892,2.4348409462289107,90.3,2.6963908596111965,1.2674059152597819,0
sbt_21137,4.413831688567353,163.8,2.69464694051731,1.267423307750237,0
rbt_1134165,2.427927843990975,90.3,2.6887351539213453,1.2653327907674055,0
rbt_1131858,2.426635260460333,90.3,2.6873037214400144,1.2642785536614403,0
rbt_1607353,2.406123818718739,90.3,2.6645889465323798,1.2523801780811483,0
sbt_34390,4.348298535569529,163.8,2.654638910604108,2.011019060278288,0
smt_37973,5.616579991432717,216.3,2.596662039497326,1.5419559428496754,0
smt_37991,5.616393255060622,216.3,2.5965757073789284,1.5419268346038262,0
smt_37974,5.616130030240128,216.3,2.596454013056,1.5418876219439133,0
smt_37990,5.615681228683723,216.3,2.5962465227386606,1.5418136984015218,0
smt_37975,5.615266105725313,216.3,2.596054602739396,1.5417470726901403,0
smt_37976,5.614816822713704,216.3,2.5958468898352764,1.5416743834744766,0
smt_37977,5.614373692449176,216.3,2.5956420214744225,1.541602701327662,0
smt_37978,5.613951925320793,216.3,2.5954470297368433,1.5415363622836782,0
smt_37970,5.566970460229438,216.3,2.5737265188300684,1.5305250759314133,0
smt_37971,5.566379760011084,216.3,2.5734534258026276,1.5304221090975176,0
smt_37972,5.566074357780191,216.3,2.5733122319834445,1.5303752658417575,0
smt_37989,5.565638388531953,216.3,2.573110674309733,1.5303194459019032,0
sbt_20633,4.163848512581886,163.8,2.5420320589633003,1.6777473017074946,0
smt_37964,5.450124484856711,216.3,2.5197061880983407,1.5035257911621631,0
smt_37965,5.448581609875721,216.3,2.5189928848246517,1.5032733822790105,0
smt_37994,5.448380105303851,216.3,2.5188997250595704,1.5032362526910843,0
smt_37995,5.448375341040043,216.3,2.518897522441074,1.503235537263275,0
smt_37996,5.4483696003697775,216.3,2.5188948684095136,1.5032425546938992,0
smt_37966,5.4480204725440124,216.3,2.518733459336113,1.5031882316667622,0
smt_37967,5.447593585741066,216.3,2.5185361006662346,1.5031201846073536,0
smt_37968,5.447155786227947,216.3,2.5183336968229066,1.503050313718213,0
smt_37969,5.446726016653635,216.3,2.5181350053877183,1.502979804430488,0
sbt_4619,5.443896873271779,216.3,2.5168270334127505,1.1830813653721861,0
rbt_606110,1.5131237380486262,61.95,2.4424919096830124,1.1475897320573725,0
rbt_1607284,2.1971407135854153,90.3,2.4331569364179573,1.143924584739864,0
rbt_1607302,1.4894197160825045,61.95,2.4042287588095306,1.1295599270807215,0
rbt_607382,2.1480094197218866,90.3,2.378747973113939,1.1184228238498026,0
rbt_1607273,1.8224188722998214,76.65,2.377584960599897,1.117247577876203,0
sbt_26614,3.8514707650559705,162.75,2.3664950937363876,1.792444787861573,0
sbt_26512,3.8514691849081806,162.75,2.3664941228314476,1.7924438037941757,0
sbt_16246,3.851468608521929,162.75,2.3664937686770684,1.7924434454896694,0
sbt_5828,3.851465877483832,163.8,2.3513222695261486,1.7809517404290907,0
sbt_3790,3.8242519422941275,163.8,2.3347081454787104,1.0968356738968619,0
rbt_1137150,1.4375675634499647,61.95,2.320528754560072,1.0909502001396354,0
rbt_3405843,2.089418685202774,90.3,2.313863438762762,1.0881329792722128,0
rbt_1607288,1.7563926984036353,76.65,2.291445138165212,1.0770484405591458,0
rbt_605817,1.7472446843505305,76.65,2.2795103514031707,1.0715051792091868,0
smt_13591,3.710528734104244,163.8,2.2652800574506986,1.1230735933607108,0
sbt_30492,2.820205551522579,124.95,2.257067268125313,1.0607535067604157,0
rbt_607387,2.027835670405783,90.3,2.2456651942478216,1.0553770898566355,0
sbt_21147,2.873182149952877,128.1,2.2429212724066176,1.0539989961835126,0
sbt_17923,2.873176685527064,128.1,2.2429170066565685,1.0539946882141582,0
rbt_626695,2.0187556226926855,90.3,2.2356097704237934,1.6935874398165274,0
rbt_623432,2.018740672164363,90.3,2.235593213914023,1.0512204023640728,0
sbt_3473,3.6374035104990847,163.8,2.220637063796755,1.0438894857905043,0
sbt_26790,4.79068242856565,216.3,2.214832375666042,1.0414763721136362,0
smt_18691,6.33761431563444,286.65,2.2109242336069914,1.16135120039838,0
smt_18692,6.336907265209318,286.65,2.2106775737691673,1.1611624466727017,0
smt_22142,6.336277001744935,286.65,2.2104577016378633,1.1609945877861316,0
smt_29410,6.335705028004853,286.65,2.2102581643135717,1.1608425770877684,0
smt_4821,6.335159347119188,286.65,2.210067799448522,1.1606978421013798,0
smt_18693,6.334494821278724,286.65,2.2098359746306384,1.1605219657036203,0
smt_5832,6.333882457310285,286.65,2.209622346872592,1.1603602659206482,0
smt_18694,6.333241244279499,286.65,2.2093986549030173,1.1601913309181364,0
smt_5643,6.332676134497974,286.65,2.209201512122091,1.160042771648686,0
smt_29483,6.332114494121112,286.65,2.2090055796689736,1.159895427319393,0
smt_6014,6.331558238407959,286.65,2.2088115256961314,1.1597497939952344,0
smt_18695,6.3309165566898455,286.65,2.208587670221471,1.1595821651224452,0
smt_29482,6.330346043619618,286.65,2.2083886424628005,1.1594334614606339,0
smt_6195,6.32974809831881,286.65,2.2081800447649784,1.1592779455178266,0
smt_6105,6.3291480230370105,286.65,2.2079707040073298,1.1591222242139947,0
smt_19334,6.284509119188102,286.65,2.1923980879777085,1.137636071209818,0
smt_19331,6.283887893713312,286.65,2.1921813688167844,1.1374427348944212,0
smt_22269,6.283277767995303,286.65,2.191968521889169,1.1372531438704414,0
sbt_34896,4.684048828922433,216.3,2.165533439168947,1.0179944835991446,0
sbt_34381,3.4982649527534875,163.8,2.1356928893488933,1.0040208507471913,0
smt_29480,6.081202462275521,286.65,2.121473037598298,1.165369892371433,0
smt_19271,6.080012880972993,286.65,2.1210580432489077,1.1650974380278594,0
smt_5537,6.079540530157696,286.65,2.1208932601282737,1.1649896585753539,0
smt_19274,6.056824340153888,286.65,2.112968547062232,1.1512758415818247,0
smt_4942,6.05627006477786,286.65,2.112775183944832,1.15114779155473,0
smt_18740,6.055729179566652,286.65,2.112586492086744,1.1510231422580397,0
smt_5191,6.0551907337686295,286.65,2.112398651236222,1.1508993573792072,0
smt_5198,6.05465731700651,286.65,2.1122125648025505,1.150777026686853,0
smt_5549,6.054069361549249,286.65,2.1120074521364907,1.1506425330691463,0
smt_19273,6.053467943503702,286.65,2.111797642945649,1.1505053347864418,0
smt_5414,6.0529630211099965,286.65,2.11162149698587,1.1503904431225143,0
smt_5522,6.052401543081497,286.65,2.111425621169195,1.1502629980138048,0
smt_40861,6.023719832655272,286.65,2.1014197916118165,1.132821882275614,0
smt_40860,6.023358046895585,286.65,2.101293579939154,1.132738014001191,0
smt_40859,6.022977698967638,286.65,2.101160892715032,1.1326499916356572,0
smt_40858,6.022592042672824,286.65,2.101026353627359,1.1325608967941716,0
smt_40857,6.022118676375618,286.65,2.100861216248253,1.132451754268166,0
smt_40856,6.021641525886623,286.65,2.1006947587254925,1.1323419798221286,0
smt_40855,6.021175810407109,286.65,2.100532290391456,1.1322350695530325,0
smt_40854,6.020735354360972,286.65,2.1003786339999904,1.1321341704945322,0
smt_40853,6.020259774512496,286.65,2.100212724406941,1.1320254578809783,0
smt_40852,6.0197813470234,286.65,2.100045821393128,1.131916338519306,0
smt_22899,6.018268066648614,286.65,2.0995179021973187,1.1239924008767785,0
smt_5757,6.017969798864594,286.65,2.0994138492463263,1.1241882516746686,0
smt_5956,6.017700513472735,286.65,2.099319907019967,1.1238453564050708,0
smt_6028,6.017378692372632,286.65,2.0992076373182043,1.1240358991148056,0
smt_22898,6.0167782065008355,286.65,2.0989981533231594,1.123881482186222,0
smt_16985,6.0162897848534636,286.65,2.098827763772358,1.1237561641791587,0
smt_6106,6.015727278717261,286.65,2.098631529292608,1.1236121441197477,0
smt_6021,6.015170040072359,286.65,2.0984371324166613,1.1234697831179277,0
smt_6212,6.014628180109729,286.65,2.0982481005092377,1.1233316480417017,0
smt_6044,6.014065135317971,286.65,2.098051678115462,1.123188423503607,0
smt_6029,6.01351613220309,286.65,2.0978601542658613,1.1230490769353645,0
smt_19276,6.012967510131106,286.65,2.097668763345929,1.1229101298434374,0
smt_22896,6.012341066892461,286.65,2.097450223928994,1.1227518444050926,0
smt_6693,6.011918241982085,286.65,2.0973027182913255,1.1226452328508874,0
smt_41231,6.0119010999700535,286.65,2.097296738172006,1.1226409145683818,0
smt_41232,6.011303976771347,286.65,2.09708842727066,1.1224906732946627,0
rbt_605808,1.8934700112789489,90.3,2.0968660147053697,0.985228440158115,0
smt_40865,6.003061675275863,286.65,2.0942130386449898,1.1204541305858329,0
smt_40864,6.002597451758881,286.65,2.094051090793261,1.1203415279272138,0
smt_40863,6.002126550134716,286.65,2.09388681323381,1.1202275390295735,0
smt_40862,6.001655831166146,286.65,2.0937225993951323,1.1201138299698283,0
rbt_1607326,1.889655615247597,90.3,2.0926418773506055,0.9839348492513054,0
smt_40375,3.41466231271219,163.8,2.084653426564218,1.0378173267109057,0
smt_40374,3.4141116328998247,163.8,2.0843172362025792,1.0374887349473119,0
smt_40358,3.413563768796304,163.8,2.0839827648329083,1.0371625017488217,0
smt_40357,3.412986904855974,163.8,2.083630589045161,1.0368197354871647,0
smt_40356,3.4125010184044005,163.8,2.0833339550698415,1.0365316152482211,0
smt_40355,3.411946080750368,163.8,2.082995165293265,1.0362032104237795,0
...